/*--------------------------------*- C++ -*----------------------------------*\
| =========                 |                                                 |
| \\      /  F ield         | OpenFOAM: The Open Source CFD Toolbox           |
|  \\    /   O peration     | Version:  v1606+                                |
|   \\  /    A nd           | Web:      www.OpenFOAM.com                      |
|    \\/     M anipulation  |                                                 |
\*---------------------------------------------------------------------------*/
FoamFile
{
    version     2.0;
    format      ascii;
    class       dictionary;
    location    "system";
    object      fvSchemes;
}
// * * * * * * * * * * * * * * * * * * * * * * * * * * * * * * * * * * * * * //

ddtSchemes
{
    default         steadyState;
}

gradSchemes
{
    default         Gauss linear; 
}

divSchemes
{
    default         				Gauss linear;
    turbulence      				bounded Gauss upwind;
    div(phi,U)      				bounded Gauss linearUpwindV grad(U);
    div(phi,k)      				$turbulence;
    div(phi,epsilon) 				$turbulence;
    div(phi,omega)  				$turbulence;
    div(phi,v2)     				$turbulence;
    div((nuEff*dev2(T(grad(U))))) 	Gauss linear;
    div(nonlinearStress) 			Gauss linear;
    div((nu*dev2(T(grad(U))))) 		Gauss linear;
}

laplacianSchemes
{
    default         Gauss linear limited corrected 0.333;
}

interpolationSchemes
{
    default         linear;
}

snGradSchemes
{
    default         limited corrected 0.333;
}

wallDist
{
    method meshWave;
}




// ************************************************************************* //
