/*--------------------------------*- C++ -*----------------------------------*\
| =========                 |                                                 |
| \\      /  F ield         | OpenFOAM: The Open Source CFD Toolbox           |
|  \\    /   O peration     | Version:  v1606+                                |
|   \\  /    A nd           | Web:      www.OpenFOAM.com                      |
|    \\/     M anipulation  |                                                 |
\*---------------------------------------------------------------------------*/
FoamFile
{
    version     2.0;
    format      ascii;
    class       dictionary;
    location    "constant";
    object      transportProperties;
}
// * * * * * * * * * * * * * * * * * * * * * * * * * * * * * * * * * * * * * //

transportModel  Newtonian;

nu              [0 2 -1 0 0 0 0] 1e-05;

//- Medium properties
//				          kg  m  s  K ml  A Ca
Rhoa			Rhoa		[  1 -3  0  0  0  0  0 ] 1.2;		//- Air density (kg/m3)
Lambdaa			Lambdaa		[  1  1 -3 -1  0  0  0 ] 0.026;		//- Air thermal conductivity (W/m/K == kg m /s^3 /K)
Cpa			Cpa 		[  0  2 -2 -1  0  0  0 ] 1004;		//- Air specific heat (J/kg/K == m^2 /s^2 /K)
// ************************************************************************* //
